<?xml version="1.0" encoding="UTF-8"?>

<!-- generated on 10/29/20 16:39:03 by Eclipse SUMO netedit Version 1.7.0
<configuration xmlns:xsi="http://www.w3.org/2001/XMLSchema-instance" xsi:noNamespaceSchemaLocation="http://sumo.dlr.de/xsd/netconvertConfiguration.xsd">

    <input>
        <sumo-net-file value="C:\Users\muenchow\Sumo\2020-10-29-12-19-35\dave_b170_reduced.net.xml"/>
    </input>

    <output>
        <output-file value="C:\Users\muenchow\Sumo\2020-10-29-12-19-35\dave_b170_reduced.net.xml"/>
        <output.street-names value="true"/>
    </output>

    <processing>
        <geometry.min-radius.fix.railways value="false"/>
        <geometry.max-grade.fix value="false"/>
        <offset.disable-normalization value="true"/>
        <lefthand value="false"/>
    </processing>

    <junctions>
        <no-turnarounds value="true"/>
        <junctions.corner-detail value="5"/>
        <junctions.limit-turn-speed value="5.5"/>
        <rectangular-lane-cut value="false"/>
    </junctions>

    <pedestrian>
        <walkingareas value="false"/>
    </pedestrian>

    <netedit>
        <additional-files value="C:\Users\muenchow\Sumo\2020-10-29-12-19-35\dave.poly.add.xml"/>
    </netedit>

    <report>
        <aggregate-warnings value="5"/>
    </report>

</configuration>
-->

<additional xmlns:xsi="http://www.w3.org/2001/XMLSchema-instance" xsi:noNamespaceSchemaLocation="http://sumo.dlr.de/xsd/additional_file.xsd">
    <poly id="100070304" type="building.detached" color="255,230,230" fill="1" layer="-1.00" shape="6112.142911,5171.059657 6121.418685,5170.266734 6122.314130,5180.762736 6118.565990,5181.082776 6118.846064,5184.325927 6113.311438,5184.798929 6112.142911,5171.059657"/>
    <poly id="10269351" type="landuse.residential" color="235,235,227" fill="1" layer="-3.00" shape="3666.266023,4875.783951 3662.728132,4875.301192 3647.718174,4881.605384 3630.892280,4887.986093 3615.102734,4893.447620 3614.182130,4879.025841 3590.094934,4881.875034 3566.650202,4886.937670 3550.465789,4892.684437 3536.148714,4851.513766 3492.418124,4864.509336 3474.821261,4866.955393 3499.769867,5090.782732 3503.071390,5124.416897 3572.140790,5178.982406 3626.337401,5186.714824 3697.532643,5191.568016 3678.329161,5009.807100 3666.266023,4875.783951"/>
    <poly id="10269416" type="building.yes" color="255,230,230" fill="1" layer="-1.00" shape="5011.905081,5504.467578 5008.685312,5504.089628 5009.063237,5502.014159 5004.118869,5502.923049 4999.606249,5504.858910 4996.345974,5507.807503 4994.145135,5511.972391 4996.639534,5512.596504 4996.061693,5514.875660 4993.567101,5514.240427 4995.344056,5521.228328 4999.540339,5525.727153 5005.570278,5527.947287 5011.261730,5527.236779 5016.981340,5523.700498 5019.668848,5518.470477 5022.375263,5518.779475 5021.062631,5527.233618 5044.602802,5530.206810 5046.013686,5520.538543 5049.215099,5521.072560 5050.815793,5528.419476 5053.888543,5533.671956 5063.231992,5528.326555 5068.371903,5535.055958 5075.931444,5540.931430 5083.751423,5544.833594 5089.750239,5546.475958 5089.263378,5547.529976 5103.985651,5549.343740 5105.590901,5541.574188 5114.194413,5538.466339 5121.311787,5534.616754 5126.239242,5527.468164 5128.359368,5523.093393 5136.226090,5524.024938 5146.578362,5502.389005 5127.871999,5499.821022 5129.208402,5490.298674 5119.625942,5488.740598 5113.988893,5484.900663 5114.532339,5481.443061 5107.275312,5477.642325 5099.170354,5475.113213 5090.819263,5474.979863 5083.182226,5476.780707 5075.610407,5479.915213 5070.660789,5483.760650 5061.637967,5482.515551 5053.814503,5480.037246 5046.345234,5478.565019 5038.435250,5473.930339 5030.291101,5469.144007 5031.084276,5462.289492 5026.412912,5461.547394 5027.387547,5454.233681 5004.675933,5450.512053 5003.451674,5462.846659 5000.476468,5473.331823 4995.271781,5482.287302 4992.369114,5493.716685 4998.678880,5494.675036 4998.176573,5497.264331 5012.856614,5499.868319 5011.905081,5504.467578"/>
    <poly id="102714704" type="amenity.dancing_school" color="237,199,199" fill="1" layer="-1.00" shape="3548.678158,5835.191024 3523.201988,5829.833922 3517.600972,5856.328266 3523.783453,5857.631880 3543.077019,5861.685338 3548.678158,5835.191024"/>
    <poly id="102714704#1" type="building.bridge" color="255,230,230" fill="1" layer="-1.00" shape="3548.678158,5835.191024 3523.201988,5829.833922 3517.600972,5856.328266 3523.783453,5857.631880 3543.077019,5861.685338 3548.678158,5835.191024"/>
    <poly id="102714704#2" type="leisure.dance" color="207,245,201" fill="1" layer="-2.00" shape="3548.678158,5835.191024 3523.201988,5829.833922 3517.600972,5856.328266 3523.783453,5857.631880 3543.077019,5861.685338 3548.678158,5835.191024"/>
    <poly id="10310925" type="landuse.residential" color="235,235,227" fill="1" layer="-3.00" shape="3668.706882,4870.946859 3666.266023,4875.783951 3678.329161,5009.807100 3697.532643,5191.568016 3898.224576,5186.326881 3905.948827,5185.890917 3910.969892,5184.545827 3916.567355,5179.664553 3920.091666,5171.794157 3924.737197,5155.850850 3932.752150,5123.608462 3969.033331,4918.448671 3941.566474,4917.829458 3937.972054,4880.540697 3804.843172,4895.214656 3800.436633,4858.485277 3764.296227,4862.624489 3756.175547,4859.697276 3668.706882,4870.946859"/>
    <poly id="10311418" type="landuse.meadow" color="194,194,130" fill="1" layer="-3.00" shape="3878.359893,4871.431777 3943.898055,4863.173422 3931.255733,4763.330633 3865.723330,4771.589011 3878.359893,4871.431777"/>
    <poly id="10311418#1" type="leisure.pitch" color="207,245,201" fill="1" layer="-2.00" shape="3878.359893,4871.431777 3943.898055,4863.173422 3931.255733,4763.330633 3865.723330,4771.589011 3878.359893,4871.431777"/>
    <poly id="10311418#2" type="sport.soccer" color="79,230,125" fill="1" layer="-2.00" shape="3878.359893,4871.431777 3943.898055,4863.173422 3931.255733,4763.330633 3865.723330,4771.589011 3878.359893,4871.431777"/>
    <poly id="10359535" type="landuse.residential" color="235,235,227" fill="1" layer="-3.00" shape="3341.525941,4994.512162 3486.152328,5110.744487 3489.939656,5109.465244 3491.607969,5106.988697 3480.490256,5008.532498 3469.353471,4909.809705 3465.821551,4876.257490 3422.582104,4881.280733 3423.962618,4904.237050 3406.344874,4906.683714 3371.562674,4883.605298 3346.392747,4892.681542 3332.304438,4911.016892 3341.525941,4994.512162"/>
    <poly id="10359559" type="natural.scrub" color="140,196,107" fill="1" layer="-4.00" shape="3306.959294,4966.146819 3333.945767,4988.027735 3337.060246,4985.992764 3328.953658,4920.330666 3305.306506,4956.398664 3304.298869,4960.921403 3306.959294,4966.146819"/>
    <poly id="10359607" type="amenity.parking" color="184,184,179" fill="1" layer="-1.00" shape="3374.850995,5089.661581 3377.800226,5087.807524 3387.635891,5094.485770 3395.481078,5098.507346 3395.518371,5103.400930 3407.830855,5103.328143 3407.850526,5098.878484 3412.026338,5098.938241 3415.265779,5099.214751 3415.452865,5105.440485 3422.071577,5105.568358 3422.641197,5098.884336 3426.866718,5102.157855 3430.901181,5096.992183 3426.149343,5093.316389 3429.771987,5088.669656 3392.026126,5059.403285 3387.202703,5065.584015 3380.899899,5060.700966 3370.191193,5061.802200 3372.819815,5089.864304 3374.850995,5089.661581"/>
    <poly id="10569734" type="landuse.industrial" color="209,209,204" fill="1" layer="-3.00" shape="4181.765647,4818.004140 4170.796013,4806.639128 4160.624062,4794.348068 4099.977439,4803.919470 4092.377386,4769.426008 4023.678150,4778.360766 4013.260844,4779.711373 4029.812353,4916.915465 4041.535770,5014.093864 4033.325333,5015.628219 3979.084359,5023.019891 3982.140077,5050.818880 3995.768510,5055.763238 3996.968504,5064.574042 3953.080304,5070.939052 3940.690946,5165.770821 3974.639254,5165.175065 3975.134666,5179.014812 3995.319085,5178.538348 3995.474453,5172.996247 4009.640996,5173.036967 4283.522365,5132.223644 4315.125959,5127.933727 4328.025175,5123.703911 4334.227453,5119.279707 4336.744523,5115.965493 4337.378215,5110.070235 4325.904871,5038.114411 4338.249341,5035.451573 4353.967132,5032.296022 4332.720104,4854.350970 4307.590281,4856.581003 4285.112564,4858.397723 4258.900144,4856.497961 4233.661303,4849.687081 4225.699902,4846.222438 4212.919555,4840.439508 4201.992394,4834.301605 4181.765647,4818.004140"/>
    <poly id="106058087" type="landuse.industrial" color="209,209,204" fill="1" layer="-3.00" shape="4196.032867,2292.598616 4252.098376,2316.045012 4278.278827,2330.247891 4309.024563,2361.067046 4332.301204,2316.735165 4374.953794,2226.538098 4378.865396,2229.028163 4415.347552,2153.254676 4407.934256,2150.447480 4411.256329,2144.494252 4404.431280,2142.811362 4345.174458,2127.639019 4330.855863,2125.797842 4312.252001,2124.598820 4289.455395,2125.319546 4267.498115,2128.272588 4205.138577,2142.465608 4206.256595,2146.984316 4209.520508,2161.810059 4208.619695,2205.450903 4207.343479,2264.959965 4196.032867,2292.598616"/>
    <poly id="10678600" type="landuse.farmland" color="194,194,130" fill="1" layer="-3.00" shape="5226.123998,4273.281668 5235.857231,4275.315690 5246.378611,4271.796770 5334.894165,4206.697913 5345.522402,4195.135323 5349.574153,4184.320375 5351.209620,4174.592744 5354.604448,4115.181024 5357.690197,4101.657603 5364.066903,4090.146249 5370.875095,4081.675193 5381.681035,4073.068375 5415.972529,4054.957424 5467.314166,4035.851796 5504.089406,4027.854018 5516.078798,4021.930005 5521.210241,4012.653831 5519.683162,3992.869867 5514.318524,3974.375611 5505.057386,3961.487863 5495.955858,3957.451389 5418.462404,3952.414765 5279.918807,3937.533596 5260.203375,3938.619692 5253.864661,3934.469129 5236.306191,3899.178709 5231.846071,3870.558136 5230.485231,3834.887506 5228.920375,3812.579301 5228.671833,3791.716585 5252.806423,3722.280139 5239.683381,3715.432742 5228.832529,3706.054495 5196.514345,3678.093800 5153.854898,3630.090411 5097.271635,3537.591200 5070.128825,3492.067158 5065.724916,3486.203695 5058.437359,3477.965353 5051.064128,3474.099901 4994.669423,3509.659294 4981.555548,3528.484604 4968.526099,3541.246368 4947.379688,3551.768623 4917.075290,3565.175063 4891.221581,3572.164222 4850.851066,3587.069467 4817.568003,3602.708377 4802.812811,3607.402896 4790.257078,3613.060317 4784.341191,3617.534538 4769.197535,3625.717458 4759.701008,3634.959053 4760.172382,3645.117434 4771.166804,3657.851426 4785.696120,3673.282546 4868.450590,3757.081696 4947.735528,3853.422486 4984.794576,3940.252162 5004.640293,3937.371927 5012.229153,3937.518424 5017.184117,3943.205435 5110.141865,4091.456892 5185.823412,4222.211815 5204.962838,4251.167880 5214.989437,4266.099643 5226.123998,4273.281668"/>
    <poly id="10678704" type="landuse.farmland" color="194,194,130" fill="1" layer="-3.00" shape="4751.981467,3790.394964 4746.313311,3789.325589 4739.350382,3792.093985 4735.042541,3798.219906 4733.558094,3809.713714 4740.029241,3833.148933 4746.026250,3866.047101 4769.776378,3921.828426 4780.893558,3967.496006 4814.575579,4039.578300 4818.289633,4121.658392 4818.952361,4136.373958 4820.883285,4146.128798 4826.893821,4152.386816 4856.763683,4169.931940 4935.176916,4236.188275 5004.532178,4283.626700 5039.205321,4313.591984 5087.602025,4347.902442 5096.958351,4351.677943 5107.299222,4351.120620 5120.046222,4348.085673 5127.306133,4343.455061 5132.653436,4336.977765 5132.712868,4329.468605 5129.906260,4319.762198 5126.901756,4315.242611 5011.878681,4218.428798 4996.359518,4205.683818 4991.545414,4199.204643 4986.453284,4188.025195 4972.970254,4148.649480 4960.358725,4115.832466 4946.215736,4081.718398 4929.324615,4030.388904 4911.910459,3981.693607 4900.162758,3955.424400 4883.501713,3928.306179 4860.772070,3898.479238 4838.594036,3867.697340 4836.946328,3866.168719 4810.274625,3841.338032 4771.420660,3804.472628 4751.981467,3790.394964"/>
    <poly id="106808755" type="landuse.quarry" color="194,194,130" fill="1" layer="-3.00" shape="2629.041297,5498.399600 2564.830709,5523.147174 2562.603487,5507.614189 2585.923716,5498.522456 2589.804782,5497.018401 2628.021774,5482.122070 2629.041297,5498.399600"/>
    <poly id="106808812" type="amenity.parking" color="184,184,179" fill="1" layer="-1.00" shape="2509.544933,5521.930260 2489.061429,5518.157659 2480.990468,5529.413833 2512.833012,5547.766774 2523.216522,5539.506094 2530.888383,5533.407211 2529.879939,5530.755586 2527.656554,5524.888729 2522.686624,5511.751679 2509.544933,5521.930260"/>
    <poly id="106808819" type="building.yes" color="255,230,230" fill="1" layer="-1.00" shape="2528.504998,5491.803909 2539.291159,5488.018794 2551.573205,5522.894018 2540.787110,5526.679108 2528.504998,5491.803909"/>
    <poly id="10682397" type="landuse.residential" color="235,235,227" fill="1" layer="-3.00" shape="4830.824556,3092.303294 4830.272931,3100.955565 4885.969727,3162.066794 4987.758460,3256.805342 5055.796781,3230.365413 5143.318934,3200.207689 5142.447859,3198.543172 5117.719795,3144.590226 5082.079142,3059.169931 5068.788124,3063.804907 5048.844754,3019.112820 5061.657422,3013.195798 5038.310263,2964.091211 5011.880762,2944.928021 4956.020579,2914.907452 4948.665717,2933.599541 4935.865881,2953.209208 4921.161316,2975.499267 4896.863359,3008.400494 4830.824556,3092.303294"/>
    <poly id="10682403" type="landuse.farmland" color="194,194,130" fill="1" layer="-3.00" shape="4750.861526,3042.915531 4757.396578,3042.123419 4760.747494,3038.650364 4761.662090,3034.329805 4758.081950,3025.827204 4747.311366,2994.146585 4740.933805,2966.049131 4735.536474,2939.024710 4728.888537,2907.494914 4725.528784,2890.279070 4721.696384,2878.176974 4718.729979,2869.051952 4714.216568,2860.576730 4715.146507,2851.083629 4714.684738,2842.693676 4703.939115,2791.091132 4698.600335,2782.385566 4691.478731,2780.952190 4684.078148,2781.236643 4643.414084,2741.689446 4606.504273,2707.349569 4588.309879,2692.049441 4580.198296,2686.985055 4574.224439,2685.765435 4568.585564,2688.866898 4562.753737,2697.010520 4514.593785,2783.286643 4516.509108,2794.910343 4487.500700,2845.815053 4487.454535,2855.648741 4491.357246,2864.101053 4524.237875,2883.950093 4569.784305,2904.791133 4659.287501,2974.988466 4703.709698,3008.352644 4727.234179,3026.708315 4744.286689,3039.804114 4750.861526,3042.915531"/>
    <poly id="10684297" type="leisure.pitch" color="207,245,201" fill="1" layer="-2.00" shape="5707.063558,5628.680670 5725.732674,5627.502869 5723.437308,5591.147441 5704.768061,5592.325249 5707.063558,5628.680670"/>
    <poly id="10684297#1" type="sport.basketball;soccer" color="79,230,125" fill="1" layer="-2.00" shape="5707.063558,5628.680670 5725.732674,5627.502869 5723.437308,5591.147441 5704.768061,5592.325249 5707.063558,5628.680670"/>
    <poly id="10684441" type="amenity.parking" color="184,184,179" fill="1" layer="-1.00" shape="5086.046369,5293.910478 5142.498390,5301.263654 5146.538754,5270.426974 5090.086405,5263.073751 5086.046369,5293.910478"/>
    <poly id="10684708" type="landuse.meadow" color="194,194,130" fill="1" layer="-3.00" shape="5815.561780,5151.767355 5831.533243,5126.610398 5890.696450,5130.844059 5884.998282,5152.843363 5937.963287,5153.657989 5941.530735,5146.489077 5949.271782,5144.164951 5959.460697,5149.562768 5974.416666,5151.052451 5988.613866,5116.494038 5993.369006,5103.298304 6017.145362,5041.835689 6050.073785,5052.527668 6088.452035,5055.751837 6093.156250,5011.312256 6027.549983,4998.021279 6020.151455,4998.648692 6001.661982,5006.751984 5986.320337,5011.842590 5953.804907,5010.520709 5893.956473,4984.029564 5877.733490,5005.208544 5874.202389,5001.832152 5869.123390,4996.980731 5871.010621,4957.349989 5858.316013,4955.198843 5855.513001,4944.379706 5837.999192,4940.253630 5828.491172,4952.051814 5748.036667,4934.692645 5679.826796,4940.649344 5662.818916,4930.464161 5588.234674,4929.301784 5580.508030,4989.878090 5591.584063,4992.968544 5622.439063,4993.193319 5638.276777,5000.217303 5717.692599,5008.215819 5723.633523,5009.326015 5744.150085,4956.749932 5747.651782,4958.002226 5727.757486,5010.044800 5800.457401,5026.969654 5803.942817,5030.135443 5776.599807,5076.221533 5795.854507,5106.946235 5806.350904,5126.542708 5815.561780,5151.767355"/>
    <poly id="10684872" type="landuse.farmland" color="194,194,130" fill="1" layer="-3.00" shape="6067.367742,4025.134871 6046.383483,4056.583525 6033.900876,4073.882556 6025.280261,4086.399217 6015.614634,4089.534792 6001.084955,4090.573663 5993.411571,4093.663995 5986.564081,4096.217388 5893.621253,4130.859000 5890.829478,4134.199372 5889.124252,4139.923681 5887.449951,4144.179210 5885.150508,4146.765884 5882.986837,4147.859731 5880.244173,4147.929072 5874.421461,4144.358433 5869.213108,4142.645933 5862.710861,4142.412787 5799.884707,4166.205594 5697.041521,4212.611274 5684.243288,4226.568567 5679.992691,4228.721745 5674.831361,4228.109820 5665.153144,4225.595734 5657.256402,4226.287826 5647.755059,4227.118788 5612.153287,4236.763839 5618.378657,4260.448986 5625.382334,4266.579566 5632.260433,4269.086178 5645.659540,4269.255894 5685.422195,4263.265706 5735.972880,4260.260350 5812.726503,4257.661603 5843.563588,4252.916096 5873.649873,4252.666283 5920.550353,4253.674127 5960.692163,4252.584848 6005.340629,4249.127241 6044.953830,4241.351575 6074.594752,4233.947290 6115.262824,4219.736069 6148.024529,4204.826292 6151.467543,4210.006326 6140.152981,4219.699159 6111.800650,4232.286601 6084.337720,4238.207353 6023.880078,4255.238516 5972.375006,4260.292953 5921.619330,4261.986987 5901.530324,4281.708292 5889.699405,4280.910340 5879.053602,4265.353941 5830.961013,4266.024302 5774.637894,4270.418251 5732.896801,4270.724499 5733.073263,4271.600190 5741.723949,4329.436225 5651.299873,4336.820758 5652.139329,4364.792091 5648.818450,4373.658783 5639.507515,4385.531756 5611.220965,4385.117934 5601.694913,4421.565678 5587.815962,4457.465548 5587.579207,4464.087891 5585.658248,4517.945829 5582.868339,4574.310329 5627.686227,4577.598197 5623.569035,4670.180205 5623.210660,4684.001311 5638.481369,4691.457763 5680.631080,4695.926570 5766.960285,4708.256223 5883.199003,4731.474750 5899.472993,4730.783730 5901.102931,4775.036878 5933.646913,4784.066299 5959.681030,4787.879652 6008.260972,4789.726939 6083.893075,4786.428226 6093.239615,4784.810949 6134.696866,4784.567968 6196.001914,4782.550728 6211.235643,4780.944148 6247.740774,4777.105065 6351.928358,4759.696166 6362.354823,4755.980912 6376.428877,4750.968720 6441.949532,4746.791273 6452.468210,4742.307137 6455.151087,4732.995827 6460.564645,4684.684888 6465.254814,4665.940333 6474.911992,4640.971106 6491.954692,4608.401222 6523.715968,4555.892591 6439.777705,4504.812287 6432.913959,4500.635913 6500.121910,4409.637132 6401.054405,4318.827938 6275.865100,4202.594754 6205.046169,4141.950405 6232.009061,4104.705130 6165.194965,4052.646555 6101.265842,4008.492406 6087.677517,4011.650538 6074.651085,4020.160410 6067.367742,4025.134871"/>
    <poly id="10685165" type="landuse.residential" color="235,235,227" fill="1" layer="-3.00" shape="4653.446117,5329.067306 4650.137977,5386.064612 4756.624262,5404.533210 4764.817281,5354.024845 4704.416810,5346.366326 4706.935132,5328.202798 4653.446117,5329.067306"/>
    <poly id="10685204" type="amenity.parking" color="184,184,179" fill="1" layer="-1.00" shape="4769.883922,5278.654914 4698.124654,5269.447671 4706.687990,5200.323656 4778.564389,5208.950601 4776.344441,5226.942045 4769.883922,5278.654914"/>
    <poly id="107208453" type="landuse.residential" color="235,235,227" fill="1" layer="-3.00" shape="2323.490497,5814.836646 2305.673696,5832.251647 2295.746112,5850.660276 2279.302063,5841.643972 2274.634765,5790.126131 2231.674165,5775.755460 2202.240636,5779.885970 2182.679636,5797.043402 2148.241851,5790.462989 2135.877488,5772.664495 2116.015771,5773.020153 2110.788052,5783.925695 2028.542336,5790.838677 2029.329251,5858.610443 2091.646537,5827.616341 2103.262537,5854.549303 2100.989174,5909.361524 2160.304155,5912.492908 2160.319152,5953.304295 2149.740344,5978.398912 2146.353876,5997.313662 2136.461509,6052.507002 2165.730372,6056.510202 2159.987919,6084.499301 2178.073318,6089.614900 2191.417637,6097.540631 2209.644261,6105.456901 2286.320664,6158.501063 2296.978359,6162.136976 2321.922408,6165.984760 2327.674711,6164.413679 2329.408402,6155.439512 2430.240655,6172.236930 2438.556492,6137.428111 2482.508211,6143.462452 2492.479113,6118.435007 2511.421585,6087.852752 2515.675201,6081.303103 2537.954632,6064.743612 2562.994740,6073.574115 2506.846361,6167.622058 2446.556693,6154.893604 2437.056873,6193.327511 2421.674872,6189.108248 2391.900835,6278.927096 2455.674084,6296.286767 2464.382446,6272.471979 2509.148202,6286.456311 2526.276294,6246.996639 2545.154476,6219.908373 2576.364036,6237.627726 2569.166052,6250.970558 2578.850228,6257.471970 2584.755952,6264.118598 2631.088135,6276.663397 2626.856717,6292.333705 2580.134274,6277.170790 2575.471305,6286.330550 2551.924307,6364.736117 2591.887831,6384.056975 2647.113253,6417.066110 2661.556912,6403.305149 2644.892161,6384.124933 2637.389249,6357.896222 2701.940085,6279.139324 2718.337023,6302.974048 2753.228693,6326.635521 2761.473334,6354.764403 2769.591585,6365.142691 2805.016591,6337.560908 2761.329116,6279.217231 2722.548775,6220.742088 2710.875584,6217.568316 2675.844903,6211.762549 2642.600365,6205.024216 2642.254901,6201.381911 2641.589365,6194.341562 2642.933796,6186.720372 2645.750921,6165.680448 2649.273811,6147.241945 2673.631118,6151.246472 2675.602361,6131.545307 2678.588198,6116.820462 2698.963354,6109.917264 2727.265728,6108.935319 2725.382770,6099.703080 2719.897035,6093.004327 2669.827167,6075.097043 2672.729662,6057.659586 2685.018726,6016.195474 2698.459657,6003.965283 2714.483783,5976.839506 2725.083881,5963.436374 2742.358173,5957.278186 2753.460742,5957.525633 2751.080709,5946.377890 2739.575546,5943.612612 2728.238123,5945.938862 2711.850727,5949.111384 2709.930227,5952.360203 2709.683481,5958.994103 2707.942253,5965.220788 2705.131248,5973.223998 2702.510101,5978.098174 2695.652159,5990.878585 2685.246689,6007.326113 2678.950775,6012.265713 2671.589466,6016.467901 2662.450930,6015.807471 2621.756404,6002.060696 2586.104925,6023.707849 2577.878658,6044.321401 2562.368360,6038.824812 2550.890867,6036.426533 2530.389241,6029.161416 2534.837604,6014.643995 2496.673286,5979.551865 2463.585191,5954.157980 2452.067004,5944.775173 2439.446855,5912.564687 2424.742784,5898.422383 2395.143669,5884.601670 2384.651485,5871.796940 2373.758703,5858.954890 2386.764671,5838.489244 2400.544952,5809.912007 2410.703889,5786.360474 2395.673180,5780.666700 2390.739843,5791.588934 2349.463119,5771.314095 2331.566666,5768.185577 2323.543793,5773.846113 2317.378947,5786.903864 2320.432919,5808.228389 2323.490497,5814.836646"/>
    <poly id="107674486" type="landuse.residential" color="235,235,227" fill="1" layer="-3.00" shape="5343.867405,5501.956573 5351.422654,5528.710696 5391.247295,5530.136028 5391.676913,5521.296815 5394.133405,5521.354492 5436.984593,5522.939240 5438.300951,5504.096126 5343.867405,5501.956573"/>
    <poly id="107677322" type="leisure.garden" color="207,245,201" fill="1" layer="-2.00" shape="5169.455232,5448.824026 5190.371373,5451.776589 5205.161808,5453.867547 5214.101005,5388.664510 5177.854919,5384.497864 5169.455232,5448.824026"/>
    <poly id="107677323" type="amenity.community_centre" color="237,199,199" fill="1" layer="-1.00" shape="5187.101896,5402.735499 5205.670500,5405.028011 5207.242717,5390.473934 5188.807710,5388.201349 5187.101896,5402.735499"/>
    <poly id="107677323#1" type="building.yes" color="255,230,230" fill="1" layer="-1.00" shape="5187.101896,5402.735499 5205.670500,5405.028011 5207.242717,5390.473934 5188.807710,5388.201349 5187.101896,5402.735499"/>
    <poly id="107741349" type="building.apartments" color="255,230,230" fill="1" layer="-1.00" shape="4818.375637,5352.726472 4814.987231,5352.340447 4806.663311,5351.361715 4807.390857,5345.186816 4809.169554,5330.061715 4810.794761,5316.196206 4812.517895,5301.505878 4813.477772,5293.358136 4825.190226,5294.722909 4818.375637,5352.726472"/>
    <poly id="107741353" type="building.apartments" color="255,230,230" fill="1" layer="-1.00" shape="5033.825438,5317.340245 5027.218771,5372.091893 5026.776261,5375.703479 5038.025162,5377.054521 5038.908077,5369.709033 5040.687365,5354.984455 5042.349598,5341.196255 5044.092225,5326.783765 5045.074464,5318.691303 5033.825438,5317.340245"/>
    <poly id="107741357" type="building.apartments" color="255,230,230" fill="1" layer="-1.00" shape="4969.449283,5367.221080 4882.818267,5356.823414 4881.382751,5368.694550 4888.743801,5369.578895 4902.980779,5371.289300 4917.203720,5372.999988 4931.778112,5374.749106 4946.176763,5376.479070 4960.547154,5378.198440 4968.013573,5379.092191 4968.259389,5377.085751 4969.449283,5367.221080"/>
    <poly id="108178361" type="building.yes" color="255,230,230" fill="1" layer="-1.00" shape="5431.594764,4657.150425 5439.048098,4661.704622 5445.620628,4651.001954 5438.160462,4646.458988 5431.594764,4657.150425"/>
    <poly id="108178363" type="building.yes" color="255,230,230" fill="1" layer="-1.00" shape="5559.242405,4767.692808 5570.608248,4768.842808 5570.045081,4774.436330 5568.407416,4774.275462 5567.747351,4780.760505 5558.012373,4779.782617 5559.242405,4767.692808"/>
    <poly id="108178364" type="building.yes" color="255,230,230" fill="1" layer="-1.00" shape="5400.640362,4832.930033 5416.988469,4832.892470 5416.961484,4821.169136 5409.152169,4821.181613 5409.165901,4827.666173 5400.633905,4827.680018 5400.640362,4832.930033"/>
    <poly id="108178365" type="building.yes" color="255,230,230" fill="1" layer="-1.00" shape="5458.697573,4702.498905 5467.305030,4705.220153 5470.027468,4696.675098 5461.426821,4693.942605 5458.697573,4702.498905"/>
    <poly id="108178366" type="building.yes" color="255,230,230" fill="1" layer="-1.00" shape="5503.047369,4713.691173 5517.469999,4715.500220 5518.890091,4704.263604 5504.467430,4702.454553 5503.047369,4713.691173"/>
    <poly id="108178367" type="building.yes" color="255,230,230" fill="1" layer="-1.00" shape="5467.305030,4705.220153 5475.588075,4707.846904 5476.180154,4705.968001 5477.668892,4706.442858 5479.379590,4701.074236 5477.890851,4700.599378 5478.310333,4699.290734 5470.027468,4696.675098 5467.305030,4705.220153"/>
    <poly id="108178368" type="building.yes" color="255,230,230" fill="1" layer="-1.00" shape="5406.170617,4685.074631 5419.864835,4689.799127 5424.156375,4677.445088 5419.179684,4675.717928 5422.147578,4667.168609 5415.265178,4664.795839 5412.297294,4673.345162 5410.454923,4672.709582 5406.170617,4685.074631"/>
    <poly id="108178369" type="building.yes" color="255,230,230" fill="1" layer="-1.00" shape="5528.107861,4717.152102 5542.299561,4718.998569 5543.782071,4707.716393 5529.590149,4705.858802 5528.107861,4717.152102"/>
    <poly id="108178370" type="building.yes" color="255,230,230" fill="1" layer="-1.00" shape="5548.188040,4756.526637 5568.538056,4759.056756 5569.981318,4747.530556 5568.214584,4745.581087 5549.875117,4743.272140 5548.188040,4756.526637"/>
    <poly id="108178371" type="building.apartments" color="255,230,230" fill="1" layer="-1.00" shape="5552.721407,4720.331654 5554.562146,4707.441575 5562.395508,4708.407744 5562.469526,4707.816942 5570.125065,4707.829598 5570.070159,4720.522045 5567.481277,4722.168396 5552.721407,4720.331654"/>
    <poly id="108178372" type="building.yes" color="255,230,230" fill="1" layer="-1.00" shape="5431.429935,4693.537080 5442.099733,4697.034678 5444.713823,4689.125498 5434.044011,4685.627894 5431.429935,4693.537080"/>
    <poly id="108178373" type="building.yes" color="255,230,230" fill="1" layer="-1.00" shape="5590.075849,4724.237239 5599.112873,4724.203887 5599.072843,4714.549694 5590.035803,4714.583046 5590.075849,4724.237239"/>
    <poly id="108178374" type="building.yes" color="255,230,230" fill="1" layer="-1.00" shape="5482.099153,4708.223992 5493.689454,4711.394367 5496.806292,4700.083985 5485.215967,4696.913603 5482.099153,4708.223992"/>
    <poly id="108178375" type="building.yes" color="255,230,230" fill="1" layer="-1.00" shape="5557.358068,4803.697524 5566.593049,4804.572796 5567.943107,4790.489878 5558.708101,4789.614603 5557.358068,4803.697524"/>
    <poly id="108178376" type="building.yes" color="255,230,230" fill="1" layer="-1.00" shape="5407.076942,4754.634273 5420.305121,4754.728460 5420.255422,4760.791434 5407.034273,4760.697126 5407.076942,4754.634273"/>
    <poly id="108178377" type="building.yes" color="255,230,230" fill="1" layer="-1.00" shape="5403.273874,4808.680584 5417.628663,4809.011139 5417.765986,4803.146869 5403.411181,4802.816313 5403.273874,4808.680584"/>
    <poly id="108178378" type="building.yes" color="255,230,230" fill="1" layer="-1.00" shape="5403.552047,4796.751764 5414.943831,4796.966629 5415.059341,4791.058243 5403.667351,4790.832257 5403.552047,4796.751764"/>
    <poly id="108178379" type="building.yes" color="255,230,230" fill="1" layer="-1.00" shape="5393.769258,4856.796616 5407.484442,4857.071445 5407.587816,4852.086489 5399.803726,4851.931699 5399.898056,4847.236100 5393.966944,4847.116060 5393.769258,4856.796616"/>
    <poly id="108178380" type="building.apartments" color="255,230,230" fill="1" layer="-1.00" shape="5558.643695,4689.807786 5570.415760,4689.682751 5570.284072,4676.748811 5558.420785,4676.875418 5558.455708,4680.122773 5557.466437,4680.128701 5557.526778,4686.478973 5558.607047,4686.460353 5558.643695,4689.807786"/>
    <poly id="108178381" type="building.garage" color="255,230,230" fill="1" layer="-1.00" shape="5481.317244,4690.151251 5485.363459,4691.227132 5487.821895,4682.019254 5483.782687,4680.943249 5481.317244,4690.151251"/>
    <poly id="108178382" type="building.garage" color="255,230,230" fill="1" layer="-1.00" shape="5493.707567,4687.223466 5502.293439,4689.099786 5503.627511,4683.048034 5495.041630,4681.171712 5493.707567,4687.223466"/>