<?xml version="1.0" encoding="UTF-8"?>

<!-- generated on Di 11 Mai 17:39:27 2021 by Eclipse SUMO netedit Version 1.9.0
<configuration xmlns:xsi="http://www.w3.org/2001/XMLSchema-instance" xsi:noNamespaceSchemaLocation="http://sumo.dlr.de/xsd/netconvertConfiguration.xsd">

    <input>
        <sumo-net-file value="/Users/maks/Projekte/dev/DAVE/simulation/scenarios/dave/sumo/net/dave_b170_roadworks_l.net.xml"/>
    </input>

    <output>
        <output-file value="/Users/maks/Projekte/dev/DAVE/simulation/scenarios/dave/sumo/net/dave_b170_roadworks_l.net.xml"/>
        <output.street-names value="true"/>
    </output>

    <processing>
        <geometry.min-radius.fix.railways value="false"/>
        <geometry.max-grade.fix value="false"/>
        <offset.disable-normalization value="true"/>
        <lefthand value="false"/>
    </processing>

    <junctions>
        <no-turnarounds value="true"/>
        <junctions.corner-detail value="5"/>
        <junctions.limit-turn-speed value="5.5"/>
        <rectangular-lane-cut value="false"/>
    </junctions>

    <pedestrian>
        <walkingareas value="false"/>
    </pedestrian>

    <report>
        <aggregate-warnings value="5"/>
    </report>

</configuration>
-->

<net version="1.9" junctionCornerDetail="5" limitTurnSpeed="5.50" xmlns:xsi="http://www.w3.org/2001/XMLSchema-instance" xsi:noNamespaceSchemaLocation="http://sumo.dlr.de/xsd/net_file.xsd">

    <location netOffset="-405326.41,-5647280.38" convBoundary="4304.44,2019.96,6491.55,4780.85" origBoundary="13.629561,50.947395,13.818290,51.045492" projParameter="+proj=utm +zone=33 +ellps=WGS84 +datum=WGS84 +units=m +no_defs"/>

    <type id="highway.bridleway" priority="1" numLanes="1" speed="2.78" allow="pedestrian" oneway="1" width="2.00"/>
    <type id="highway.bus_guideway" priority="1" numLanes="1" speed="27.78" allow="bus" oneway="1"/>
    <type id="highway.cycleway" priority="1" numLanes="1" speed="8.33" allow="bicycle" oneway="1" width="1.00"/>
    <type id="highway.footway" priority="1" numLanes="1" speed="2.78" allow="pedestrian" oneway="1" width="2.00"/>
    <type id="highway.ford" priority="1" numLanes="1" speed="2.78" allow="army" oneway="1"/>
    <type id="highway.living_street" priority="2" numLanes="1" speed="2.78" disallow="tram rail_urban rail rail_electric ship" oneway="1"/>
    <type id="highway.motorway" priority="14" numLanes="2" speed="39.44" allow="private emergency authority army vip passenger hov taxi bus coach delivery truck trailer motorcycle evehicle custom1 custom2" oneway="1">
    	<restriction vClass="truck" speed="22.22" />
    	<restriction vClass="trailer" speed="22.22"/>
    </type>
    <type id="highway.motorway_link" priority="9" numLanes="1" speed="22.22" allow="private emergency authority army vip passenger hov taxi bus coach delivery truck trailer motorcycle evehicle custom1 custom2" oneway="1"/>
    <type id="highway.path" priority="1" numLanes="1" speed="2.78" allow="pedestrian bicycle" oneway="1" width="2.00"/>
    <type id="highway.pedestrian" priority="1" numLanes="1" speed="2.78" allow="pedestrian" oneway="1" width="2.00"/>
    <type id="highway.primary" priority="12" numLanes="2" speed="27.78" disallow="tram rail_urban rail rail_electric ship" oneway="1">
        	<restriction vClass="truck" speed="16.67" />
    	<restriction vClass="trailer" speed="16.67"/>
    </type>
     <type id="highway.primary_link" priority="7" numLanes="1" speed="22.22" disallow="tram rail_urban rail rail_electric ship" oneway="1"/>
    <type id="highway.raceway" priority="15" numLanes="2" speed="83.33" allow="vip" oneway="1"/>
    <type id="highway.residential" priority="3" numLanes="1" speed="13.89" disallow="tram rail_urban rail rail_electric ship" oneway="1"/>
    <type id="highway.secondary" priority="11" numLanes="1" speed="27.78" disallow="tram rail_urban rail rail_electric ship" oneway="1"/>
    <type id="highway.secondary_link" priority="6" numLanes="1" speed="22.22" disallow="tram rail_urban rail rail_electric ship" oneway="1"/>
    <type id="highway.service" priority="1" numLanes="1" speed="5.56" allow="pedestrian delivery bicycle" oneway="1"/>
    <type id="highway.service|railway.tram" priority="17" numLanes="1" speed="13.89" allow="pedestrian delivery bicycle tram" oneway="1"/>
    <type id="highway.stairs" priority="1" numLanes="1" speed="1.39" allow="pedestrian" oneway="1" width="2.00"/>
    <type id="highway.step" priority="1" numLanes="1" speed="1.39" allow="pedestrian" oneway="1" width="2.00"/>
    <type id="highway.steps" priority="1" numLanes="1" speed="1.39" allow="pedestrian" oneway="1" width="2.00"/>
    <type id="highway.tertiary" priority="10" numLanes="1" speed="22.22" disallow="tram rail_urban rail rail_electric ship" oneway="1"/>
    <type id="highway.tertiary_link" priority="5" numLanes="1" speed="22.22" disallow="tram rail_urban rail rail_electric ship" oneway="1"/>
    <type id="highway.tertiary|railway.tram" priority="17" numLanes="1" speed="22.22" disallow="rail_urban rail rail_electric ship" oneway="1"/>
    <type id="highway.track" priority="1" numLanes="1" speed="5.56" allow="pedestrian motorcycle moped bicycle" oneway="1"/>
    <type id="highway.trunk" priority="13" numLanes="2" speed="27.78" disallow="pedestrian bicycle tram rail_urban rail rail_electric ship" oneway="1"/>
    <type id="highway.trunk_link" priority="8" numLanes="1" speed="22.22" disallow="pedestrian bicycle tram rail_urban rail rail_electric ship" oneway="1"/>
    <type id="highway.unclassified" priority="4" numLanes="1" speed="13.89" disallow="tram rail_urban rail rail_electric ship" oneway="1"/>
    <type id="highway.unsurfaced" priority="1" numLanes="1" speed="8.33" disallow="tram rail_urban rail rail_electric ship" oneway="1"/>
    <type id="railway.highspeed" priority="21" numLanes="1" speed="69.44" allow="rail_electric" oneway="1"/>
    <type id="railway.light_rail" priority="19" numLanes="1" speed="27.78" allow="rail_urban" oneway="1"/>
    <type id="railway.preserved" priority="16" numLanes="1" speed="27.78" allow="rail" oneway="1"/>
    <type id="railway.rail" priority="20" numLanes="1" speed="44.44" allow="rail" oneway="1"/>
    <type id="railway.subway" priority="18" numLanes="1" speed="27.78" allow="rail_urban" oneway="1"/>
    <type id="railway.tram" priority="17" numLanes="1" speed="13.89" allow="tram" oneway="1"/>

    <edge id=":10869413_0" function="internal">
        <lane id=":10869413_0_0" index="0" allow="private emergency authority army vip passenger hov taxi bus coach delivery truck trailer motorcycle evehicle custom1 custom2" speed="29.16" length="7.88" shape="5098.69,4456.30 5092.88,4461.48"/>
        <lane id=":10869413_0_1" index="1" allow="private emergency authority army vip passenger hov taxi bus coach delivery motorcycle evehicle custom1 custom2" speed="29.16" length="7.88" shape="5096.63,4453.85 5090.68,4459.16"/>
    </edge>
    <edge id=":10869421_0" function="internal">
        <lane id=":10869421_0_0" index="0" allow="private emergency authority army vip passenger hov taxi bus coach delivery truck trailer motorcycle evehicle custom1 custom2" speed="22.23" length="27.31" shape="5354.49,4262.05 5361.99,4257.87 5367.28,4254.28 5371.83,4250.77 5377.11,4246.84"/>
        <lane id=":10869421_0_1" index="1" allow="private emergency authority army vip passenger hov taxi bus coach delivery truck trailer motorcycle evehicle custom1 custom2" speed="22.23" length="27.76" shape="5355.94,4264.90 5363.59,4260.64 5369.01,4256.97 5373.64,4253.41 5378.95,4249.46"/>
    </edge>
    <edge id=":10869421_2" function="internal">
        <lane id=":10869421_2_0" index="0" allow="private emergency authority army vip passenger hov taxi bus coach delivery truck trailer motorcycle evehicle custom1 custom2" speed="27.78" length="27.61" shape="5355.94,4264.90 5380.90,4252.91"/>
        <lane id=":10869421_2_1" index="1" allow="private emergency authority army vip passenger hov taxi bus coach delivery motorcycle evehicle custom1 custom2" speed="27.78" length="27.61" shape="5357.39,4267.75 5382.20,4255.83"/>
    </edge>
    <edge id=":1289250254_0" function="internal">
        <lane id=":1289250254_0_0" index="0" disallow="tram rail_urban rail rail_electric rail_fast ship" speed="13.89" length="0.29" shape="4916.65,3218.39 4916.85,3218.63"/>
        <lane id=":1289250254_0_1" index="1" disallow="tram rail_urban rail rail_electric rail_fast ship" speed="13.89" length="0.29" shape="4914.22,3220.48 4914.40,3220.70"/>
    </edge>
    <edge id=":139470345_0" function="internal">
        <lane id=":139470345_0_0" index="0" allow="private emergency authority army vip passenger hov taxi bus coach delivery truck trailer motorcycle evehicle custom1 custom2" speed="16.49" length="8.00" shape="5534.59,4442.86 5536.14,4441.12 5536.89,4439.69 5537.38,4438.09 5538.14,4435.82"/>
    </edge>
    <edge id=":139470345_1" function="internal">
        <lane id=":139470345_1_0" index="0" disallow="tram rail_urban rail rail_electric rail_fast ship" speed="19.44" length="8.90" shape="5536.83,4445.15 5538.44,4443.17 5539.17,4441.52 5539.84,4439.83 5541.28,4437.69"/>
        <lane id=":139470345_1_1" index="1" disallow="tram rail_urban rail rail_electric rail_fast ship" speed="19.44" length="8.90" shape="5539.07,4447.43 5540.74,4445.39 5541.51,4443.70 5542.22,4441.96 5543.72,4439.76"/>
    </edge>
    <edge id=":15017696_0" function="internal">
        <lane id=":15017696_0_0" index="0" disallow="tram rail_urban rail rail_electric rail_fast ship" speed="11.11" length="23.15" shape="4667.78,2619.96 4665.70,2612.16 4663.34,2606.18 4660.70,2602.03 4657.78,2599.71"/>
    </edge>
    <edge id=":15017696_1" function="internal">
        <lane id=":15017696_1_0" index="0" disallow="tram rail_urban rail rail_electric rail_fast ship" speed="13.89" length="26.87" shape="4670.90,2619.27 4664.21,2593.34"/>
        <lane id=":15017696_1_1" index="1" disallow="tram rail_urban rail rail_electric rail_fast ship" speed="13.89" length="26.87" shape="4674.02,2618.57 4667.29,2592.46"/>
    </edge>
    <edge id=":15017696_3" function="internal">
        <lane id=":15017696_3_0" index="0" disallow="tram rail_urban rail rail_electric rail_fast ship" speed="5.49" length="9.63" shape="4682.10,2614.26 4679.31,2613.04 4677.55,2613.23 4676.83,2614.84 4677.15,2617.88"/>
    </edge>
    <edge id=":15017696_4" function="internal">
        <lane id=":15017696_4_0" index="0" disallow="tram rail_urban rail rail_electric rail_fast ship" speed="8.33" length="28.34" shape="4682.10,2614.26 4677.12,2611.22 4670.02,2606.82 4662.89,2602.51 4657.78,2599.71"/>
    </edge>
    <edge id=":15017696_5" function="internal">
        <lane id=":15017696_5_0" index="0" disallow="tram rail_urban rail rail_electric rail_fast ship" speed="11.11" length="7.69" shape="4682.10,2614.26 4678.35,2611.14 4676.55,2608.98"/>
    </edge>
    <edge id=":15017696_12" function="internal">
        <lane id=":15017696_12_0" index="0" disallow="tram rail_urban rail rail_electric rail_fast ship" speed="11.11" length="19.07" shape="4676.55,2608.98 4674.10,2606.02 4670.15,2599.57 4667.29,2592.46"/>
    </edge>
    <edge id=":15017696_6" function="internal">
        <lane id=":15017696_6_0" index="0" disallow="tram rail_urban rail rail_electric rail_fast ship" speed="11.11" length="23.54" shape="4673.45,2590.72 4675.60,2597.67 4677.99,2603.77 4680.67,2608.54 4683.71,2611.50"/>
    </edge>
    <edge id=":15017696_7" function="internal">
        <lane id=":15017696_7_0" index="0" disallow="tram rail_urban rail rail_electric rail_fast ship" speed="13.89" length="27.44" shape="4673.45,2590.72 4675.02,2598.34 4675.91,2606.08 4676.49,2612.93 4677.15,2617.88"/>
    </edge>
    <edge id=":15017696_8" function="internal">
        <lane id=":15017696_8_0" index="0" disallow="tram rail_urban rail rail_electric rail_fast ship" speed="8.14" length="18.20" shape="4670.37,2591.59 4671.29,2598.11 4669.50,2601.64 4665.00,2602.17 4662.04,2601.16"/>
    </edge>
    <edge id=":15017696_13" function="internal">
        <lane id=":15017696_13_0" index="0" disallow="tram rail_urban rail rail_electric rail_fast ship" speed="8.14" length="4.50" shape="4662.04,2601.16 4657.78,2599.71"/>
    </edge>
    <edge id=":15017696_9" function="internal">
        <lane id=":15017696_9_0" index="0" disallow="tram rail_urban rail rail_electric rail_fast ship" speed="6.43" length="13.58" shape="4659.48,2596.96 4663.89,2598.50 4666.66,2598.26 4667.80,2596.25 4667.29,2592.46"/>
    </edge>
    <edge id=":15017696_10" function="internal">
        <lane id=":15017696_10_0" index="0" disallow="tram rail_urban rail rail_electric rail_fast ship" speed="8.33" length="28.27" shape="4659.48,2596.96 4664.57,2599.77 4671.68,2604.07 4678.74,2608.46 4683.71,2611.50"/>
    </edge>
    <edge id=":15017696_11" function="internal">
        <lane id=":15017696_11_0" index="0" disallow="tram rail_urban rail rail_electric rail_fast ship" speed="11.11" length="14.76" shape="4659.48,2596.96 4666.02,2600.79 4671.15,2605.55 4671.25,2605.70"/>
    </edge>
    <edge id=":15017696_14" function="internal">
        <lane id=":15017696_14_0" index="0" disallow="tram rail_urban rail rail_electric rail_fast ship" speed="11.11" length="13.63" shape="4671.25,2605.70 4674.86,2611.24 4677.15,2617.88"/>
    </edge>
    <edge id=":1774635287_0" function="internal">
        <lane id=":1774635287_0_0" index="0" disallow="tram rail_urban rail rail_electric rail_fast ship" speed="13.89" length="8.72" shape="4803.04,3119.06 4800.53,3119.72 4798.73,3120.12 4797.14,3120.85 4795.20,3122.47"/>
    </edge>
    <edge id=":1774635287_1" function="internal">
        <lane id=":1774635287_1_0" index="0" disallow="tram rail_urban rail rail_electric rail_fast ship" speed="13.89" length="9.60" shape="4801.84,3115.53 4795.20,3122.47"/>
    </edge>
    <edge id=":1774635288_0" function="internal">
        <lane id=":1774635288_0_0" index="0" disallow="tram rail_urban rail rail_electric rail_fast ship" speed="13.89" length="15.85" shape="4784.64,3124.46 4786.70,3121.20 4788.42,3117.55 4789.94,3113.78 4791.43,3110.18"/>
    </edge>
    <edge id=":1774635288_1" function="internal">
        <lane id=":1774635288_1_0" index="0" disallow="tram rail_urban rail rail_electric rail_fast ship" speed="13.89" length="15.85" shape="4784.64,3124.46 4794.47,3112.02"/>
    </edge>
    <edge id=":1774635300_0" function="internal">
        <lane id=":1774635300_0_0" index="0" disallow="tram rail_urban rail rail_electric rail_fast ship" speed="13.89" length="27.81" shape="4825.24,3135.64 4816.66,3128.02 4810.13,3122.71 4805.66,3119.70 4803.23,3119.00"/>
    </edge>
    <edge id=":1774635300_1" function="internal">
        <lane id=":1774635300_1_0" index="0" disallow="tram rail_urban rail rail_electric rail_fast ship" speed="13.89" length="24.96" shape="4827.72,3133.57 4822.51,3128.33 4819.47,3124.26 4816.70,3119.93 4812.34,3113.90"/>
        <lane id=":1774635300_1_1" index="1" disallow="tram rail_urban rail rail_electric rail_fast ship" speed="13.89" length="24.96" shape="4830.20,3131.50 4825.01,3126.28 4821.97,3122.24 4819.20,3117.93 4814.85,3111.92"/>
        <lane id=":1774635300_1_2" index="2" disallow="tram rail_urban rail rail_electric rail_fast ship" speed="13.89" length="24.96" shape="4832.68,3129.43 4827.51,3124.23 4824.47,3120.21 4821.71,3115.92 4817.37,3109.94"/>
    </edge>
    <edge id=":1774635300_4" function="internal">
        <lane id=":1774635300_4_0" index="0" disallow="tram rail_urban rail rail_electric rail_fast ship" speed="13.89" length="24.65" shape="4822.40,3105.99 4837.59,3125.34"/>
        <lane id=":1774635300_4_1" index="1" disallow="tram rail_urban rail rail_electric rail_fast ship" speed="13.89" length="24.65" shape="4819.88,3107.97 4835.13,3127.39"/>
    </edge>
    <edge id=":1774635304_0" function="internal">
        <lane id=":1774635304_0_0" index="0" disallow="tram rail_urban rail rail_electric rail_fast ship" speed="13.89" length="0.34" shape="4768.01,3151.41 4767.78,3151.66"/>
    </edge>
    <edge id=":1774635304_1" function="internal">
        <lane id=":1774635304_1_0" index="0" disallow="tram rail_urban rail rail_electric rail_fast ship" speed="13.89" length="0.18" shape="4765.34,3149.59 4765.46,3149.45"/>
    </edge>
    <edge id=":2082171641_0" function="internal">
        <lane id=":2082171641_0_0" index="0" allow="private emergency authority army vip passenger hov taxi bus coach delivery truck trailer motorcycle evehicle custom1 custom2" speed="39.44" length="8.21" shape="5669.83,4163.92 5667.64,4164.92 5666.29,4165.95 5664.95,4166.99 5662.75,4167.98"/>
        <lane id=":2082171641_0_1" index="1" allow="private emergency authority army vip passenger hov taxi bus coach delivery truck trailer motorcycle evehicle custom1 custom2" speed="39.44" length="8.21" shape="5669.83,4163.92 5667.48,4164.45 5665.79,4164.44 5664.09,4164.43 5661.74,4164.95"/>
        <lane id=":2082171641_0_2" index="2" allow="private emergency authority army vip passenger hov taxi bus coach delivery motorcycle evehicle custom1 custom2" speed="39.44" length="8.21" shape="5668.81,4160.88 5666.46,4161.41 5664.77,4161.40 5663.07,4161.39 5660.72,4161.92"/>
    </edge>
    <edge id=":2375112288_0" function="internal">
        <lane id=":2375112288_0_0" index="0" disallow="tram rail_urban rail rail_electric rail_fast ship" speed="19.44" length="8.34" shape="4577.82,2176.25 4575.31,2176.37 4573.60,2177.20 4571.90,2177.98 4569.41,2177.97"/>
        <lane id=":2375112288_0_1" index="1" disallow="tram rail_urban rail rail_electric rail_fast ship" speed="19.44" length="8.34" shape="4577.82,2176.25 4570.06,2174.84"/>
    </edge>
    <edge id=":2375112288_2" function="internal">
        <lane id=":2375112288_2_0" index="0" disallow="tram rail_urban rail rail_electric rail_fast ship" speed="19.44" length="7.71" shape="4570.72,2171.71 4578.31,2173.08"/>
    </edge>
    <edge id=":238323108-AddedOnRampNode_0" function="internal">
        <lane id=":238323108-AddedOnRampNode_0_0" index="0" disallow="tram rail_urban rail rail_electric rail_fast ship" speed="23.61" length="7.83" shape="5521.48,3949.73 5518.36,3942.66"/>
        <lane id=":238323108-AddedOnRampNode_0_1" index="1" disallow="tram rail_urban rail rail_electric rail_fast ship" speed="23.61" length="7.83" shape="5524.45,3948.53 5521.24,3941.28"/>
    </edge>
    <edge id=":2461714989_0" function="internal">
        <lane id=":2461714989_0_0" index="0" disallow="tram rail_urban rail rail_electric rail_fast ship" speed="27.78" length="8.04" shape="5468.16,3860.59 5466.54,3858.95 5465.15,3858.11 5463.73,3857.30 5462.01,3855.75"/>
        <lane id=":2461714989_0_1" index="1" disallow="tram rail_urban rail rail_electric rail_fast ship" speed="27.78" length="8.04" shape="5470.67,3858.61 5469.02,3856.92 5467.61,3856.05 5466.16,3855.22 5464.40,3853.62"/>
        <lane id=":2461714989_0_2" index="2" disallow="tram rail_urban rail rail_electric rail_fast ship" speed="27.78" length="8.04" shape="5470.67,3858.61 5469.39,3856.58 5468.80,3854.99 5468.18,3853.43 5466.79,3851.49"/>
    </edge>
    <edge id=":2461714991_0" function="internal">
        <lane id=":2461714991_0_0" index="0" disallow="tram rail_urban rail rail_electric rail_fast ship" speed="19.44" length="8.02" shape="5540.58,3956.47 5541.70,3958.61 5542.78,3959.91 5543.82,3961.23 5544.80,3963.41"/>
        <lane id=":2461714991_0_1" index="1" disallow="tram rail_urban rail rail_electric rail_fast ship" speed="19.44" length="8.02" shape="5537.61,3957.66 5538.70,3959.74 5539.77,3961.00 5540.80,3962.29 5541.76,3964.41"/>
        <lane id=":2461714991_0_2" index="2" disallow="tram rail_urban rail rail_electric rail_fast ship" speed="19.44" length="8.02" shape="5537.61,3957.66 5538.22,3959.88 5538.25,3961.51 5538.24,3963.15 5538.72,3965.42"/>
    </edge>
    <edge id=":2461715005_0" function="internal">
        <lane id=":2461715005_0_0" index="0" disallow="tram rail_urban rail rail_electric rail_fast ship" speed="19.44" length="7.54" shape="5445.15,4498.76 5447.18,4498.12 5448.43,4497.29 5449.66,4496.38 5451.63,4495.52"/>
        <lane id=":2461715005_0_1" index="1" disallow="tram rail_urban rail rail_electric rail_fast ship" speed="19.44" length="7.54" shape="5445.15,4498.76 5447.35,4498.60 5448.90,4498.82 5450.43,4498.97 5452.57,4498.58"/>
        <lane id=":2461715005_0_2" index="2" disallow="tram rail_urban rail rail_electric rail_fast ship" speed="19.44" length="7.54" shape="5445.74,4501.91 5448.05,4501.73 5449.67,4501.93 5451.27,4502.06 5453.51,4501.64"/>
    </edge>
    <edge id=":248527123_0" function="internal">
        <lane id=":248527123_0_0" index="0" disallow="tram rail_urban rail rail_electric rail_fast ship" speed="19.44" length="7.70" shape="5591.20,4266.03 5591.84,4268.29 5592.61,4269.76 5593.30,4271.23 5593.72,4273.52"/>
        <lane id=":248527123_0_1" index="1" disallow="tram rail_urban rail rail_electric rail_fast ship" speed="19.44" length="7.70" shape="5588.05,4266.57 5588.67,4268.74 5589.43,4270.14 5590.12,4271.55 5590.53,4273.74"/>
        <lane id=":248527123_0_2" index="2" disallow="tram rail_urban rail rail_electric rail_fast ship" speed="19.44" length="7.70" shape="5588.05,4266.57 5588.16,4268.75 5587.83,4270.25 5587.42,4271.77 5587.33,4273.97"/>
    </edge>
    <edge id=":2498228701_0" function="internal">
        <lane id=":2498228701_0_0" index="0" disallow="tram rail_urban rail rail_electric rail_fast ship" speed="19.44" length="8.40" shape="4492.99,2274.15 4491.71,2271.99 4490.17,2270.90 4488.62,2269.81 4487.34,2267.65"/>
        <lane id=":2498228701_0_1" index="1" disallow="tram rail_urban rail rail_electric rail_fast ship" speed="19.44" length="8.40" shape="4492.99,2274.15 4490.36,2266.60"/>
    </edge>
    <edge id=":2498228701_2" function="internal">
        <lane id=":2498228701_2_0" index="0" disallow="tram rail_urban rail rail_electric rail_fast ship" speed="19.44" length="8.00" shape="4493.39,2265.55 4496.02,2273.10"/>
    </edge>
    <edge id=":2607721079_0" function="internal">
        <lane id=":2607721079_0_0" index="0" disallow="tram rail_urban rail rail_electric rail_fast ship" speed="16.66" length="0.30" shape="4612.80,2476.07 4612.63,2475.82"/>
    </edge>
    <edge id=":2607721079_1" function="internal">
        <lane id=":2607721079_1_0" index="0" disallow="tram rail_urban rail rail_electric rail_fast ship" speed="16.66" length="0.29" shape="4615.28,2474.03 4615.45,2474.28"/>
    </edge>
    <edge id=":2671716504_0" function="internal">
        <lane id=":2671716504_0_0" index="0" allow="private emergency authority army vip passenger hov taxi bus coach delivery truck trailer motorcycle evehicle custom1 custom2" speed="30.83" length="1.70" shape="6303.59,3832.07 6303.63,3832.04 6303.66,3832.01 6303.69,3831.99 6303.73,3831.95"/>
        <lane id=":2671716504_0_1" index="1" allow="private emergency authority army vip passenger hov taxi bus coach delivery motorcycle evehicle custom1 custom2" speed="30.83" length="1.70" shape="6303.59,3832.07 6305.94,3834.27"/>
    </edge>
    <edge id=":2697510998_0" function="internal">
        <lane id=":2697510998_0_0" index="0" disallow="tram rail_urban rail rail_electric rail_fast ship" speed="13.89" length="8.08" shape="4772.98,3042.43 4769.53,3035.06"/>
        <lane id=":2697510998_0_1" index="1" disallow="tram rail_urban rail rail_electric rail_fast ship" speed="13.89" length="8.08" shape="4775.85,3041.02 4772.45,3033.75"/>
    </edge>
    <edge id=":2697510998_2" function="internal">
        <lane id=":2697510998_2_0" index="0" disallow="tram rail_urban rail rail_electric rail_fast ship" speed="13.89" length="8.08" shape="4778.29,3031.14 4779.72,3033.11 4781.33,3033.99 4782.97,3034.85 4784.47,3036.78"/>
        <lane id=":2697510998_2_1" index="1" disallow="tram rail_urban rail rail_electric rail_fast ship" speed="13.89" length="8.08" shape="4778.29,3031.14 4781.60,3038.19"/>
        <lane id=":2697510998_2_2" index="2" disallow="tram rail_urban rail rail_electric rail_fast ship" speed="13.89" length="8.08" shape="4775.37,3032.45 4778.73,3039.60"/>
    </edge>
    <edge id=":2718636170_0" function="internal">
        <lane id=":2718636170_0_0" index="0" allow="private emergency authority army vip passenger hov taxi bus coach delivery truck trailer motorcycle evehicle custom1 custom2" speed="13.89" length="8.21" shape="5478.17,4073.31 5480.51,4072.75 5482.03,4072.00 5483.55,4071.25 5485.90,4070.69"/>
        <lane id=":2718636170_0_1" index="1" allow="private emergency authority army vip passenger hov taxi bus coach delivery truck trailer motorcycle evehicle custom1 custom2" speed="13.89" length="8.21" shape="5478.17,4073.31 5480.58,4073.25 5482.24,4073.59 5483.90,4073.93 5486.31,4073.87"/>
        <lane id=":2718636170_0_2" index="2" allow="private emergency authority army vip passenger hov taxi bus coach delivery truck trailer motorcycle evehicle custom1 custom2" speed="13.89" length="8.21" shape="5478.58,4076.48 5480.99,4076.42 5482.65,4076.76 5484.31,4077.10 5486.72,4077.04"/>
    </edge>
    <edge id=":288680963-AddedOffRampNode_0" function="internal">
        <lane id=":288680963-AddedOffRampNode_0_0" index="0" allow="private emergency authority army vip passenger hov taxi bus coach delivery truck trailer motorcycle evehicle custom1 custom2" speed="27.78" length="1.62" shape="5539.21,4210.03 5539.45,4211.64"/>
        <lane id=":288680963-AddedOffRampNode_0_1" index="1" allow="private emergency authority army vip passenger hov taxi bus coach delivery truck trailer motorcycle evehicle custom1 custom2" speed="27.78" length="1.62" shape="5538.17,4207.00 5538.41,4208.61"/>
        <lane id=":288680963-AddedOffRampNode_0_2" index="2" allow="private emergency authority army vip passenger hov taxi bus coach delivery motorcycle evehicle custom1 custom2" speed="27.78" length="1.62" shape="5537.13,4203.98 5537.37,4205.58"/>
    </edge>
    <edge id=":2922329455_0" function="internal">
        <lane id=":2922329455_0_0" index="0" allow="private emergency authority army vip passenger hov taxi bus coach delivery truck trailer motorcycle evehicle custom1 custom2" speed="33.61" length="0.30" shape="5612.87,4184.67 5612.62,4184.75"/>
        <lane id=":2922329455_0_1" index="1" allow="private emergency authority army vip passenger hov taxi bus coach delivery truck trailer motorcycle evehicle custom1 custom2" speed="33.61" length="0.30" shape="5611.86,4181.63 5611.58,4181.73"/>
        <lane id=":2922329455_0_2" index="2" allow="private emergency authority army vip passenger hov taxi bus coach delivery motorcycle evehicle custom1 custom2" speed="33.61" length="0.30" shape="5610.85,4178.60 5610.54,4178.70"/>
    </edge>
    <edge id=":318372930-AddedOffRampNode_0" function="internal">
        <lane id=":318372930-AddedOffRampNode_0_0" index="0" allow="private emergency authority army vip passenger hov taxi bus coach delivery truck trailer motorcycle evehicle custom1 custom2" speed="27.78" length="1.60" shape="5280.59,4303.43 5279.80,4302.04"/>
        <lane id=":318372930-AddedOffRampNode_0_1" index="1" allow="private emergency authority army vip passenger hov taxi bus coach delivery truck trailer motorcycle evehicle custom1 custom2" speed="27.78" length="1.60" shape="5282.16,4306.22 5281.37,4304.83"/>
        <lane id=":318372930-AddedOffRampNode_0_2" index="2" allow="private emergency authority army vip passenger hov taxi bus coach delivery motorcycle evehicle custom1 custom2" speed="27.78" length="1.60" shape="5283.73,4309.01 5282.94,4307.62"/>
    </edge>
    <edge id=":3247746829_0" function="internal">
        <lane id=":3247746829_0_0" index="0" allow="private emergency authority army vip passenger hov taxi bus coach delivery truck trailer motorcycle evehicle custom1 custom2" speed="31.95" length="8.17" shape="5085.45,4447.51 5087.04,4445.68 5087.86,4444.18 5088.69,4442.71 5090.32,4440.93"/>
        <lane id=":3247746829_0_1" index="1" allow="private emergency authority army vip passenger hov taxi bus coach delivery truck trailer motorcycle evehicle custom1 custom2" speed="31.95" length="8.17" shape="5085.45,4447.51 5087.37,4446.06 5088.91,4445.39 5090.47,4444.73 5092.44,4443.33"/>
        <lane id=":3247746829_0_2" index="2" allow="private emergency authority army vip passenger hov taxi bus coach delivery motorcycle evehicle custom1 custom2" speed="31.95" length="8.17" shape="5087.64,4449.85 5089.53,4448.42 5091.06,4447.76 5092.61,4447.11 5094.55,4445.73"/>
    </edge>
    <edge id=":3666047105_0" function="internal">
        <lane id=":3666047105_0_0" index="0" disallow="tram rail_urban rail rail_electric rail_fast ship" speed="13.89" length="8.02" shape="4651.62,2555.90 4651.23,2553.54 4651.70,2551.77 4652.11,2550.02 4651.57,2547.72"/>
        <lane id=":3666047105_0_1" index="1" disallow="tram rail_urban rail rail_electric rail_fast ship" speed="13.89" length="8.02" shape="4654.60,2554.74 4651.57,2547.72"/>
    </edge>
    <edge id=":3666047105_2" function="internal">
        <lane id=":3666047105_2_0" index="0" disallow="tram rail_urban rail rail_electric rail_fast ship" speed="13.89" length="8.33" shape="4654.47,2546.35 4655.97,2548.37 4657.62,2549.33 4659.21,2550.32 4660.56,2552.41"/>
        <lane id=":3666047105_2_1" index="1" disallow="tram rail_urban rail rail_electric rail_fast ship" speed="13.89" length="8.33" shape="4654.47,2546.35 4657.58,2553.57"/>
    </edge>
    <edge id=":3666047106_0" function="internal">
        <lane id=":3666047106_0_0" index="0" disallow="tram rail_urban rail rail_electric rail_fast ship" speed="13.89" length="8.28" shape="4684.11,2678.29 4683.05,2676.00 4681.62,2674.74 4680.21,2673.47 4679.19,2671.17"/>
        <lane id=":3666047106_0_1" index="1" disallow="tram rail_urban rail rail_electric rail_fast ship" speed="13.89" length="8.28" shape="4684.11,2678.29 4682.31,2670.47"/>